Circuit: * Z:\home\frohro\Classes\Intro to Engineering\2026\Intro-to-CAD-2026\Frohne\Docs\DAC_Amp.asc

Direct Newton iteration for .op point succeeded.

Date: Sun Feb 15 09:12:31 2026
Total elapsed time: 55.391 seconds.

tnom = 27
temp = 27
method = Gear
totiter = 882508
traniter = 882501
tranpoints = 214807
accept = 160964
rejected = 53843
matrix size = 151
fillins = 173
solver = Normal
Thread vector: 39.8/27.2[3] 8.4/11.2[1] 3.6/8.6[1] 3.3/9.1[1]  2592/500
Matrix Compiler1: 17.38 KB object code size  16.2/7.4/[3.3]
Matrix Compiler2: 15.66 KB object code size  6.9/8.6/[3.4]

