LTspice 24.0.12 for Windows
Circuit: * Z:\home\frohro\Classes\Intro to Engineering\PCM1808_Sound_Card\Docs\TayloeDetectorAmplifier_Balanced_2026.asc
Start Time: Thu Jan 15 21:48:15 2026
solver = Normal
Maximum thread count: 8
tnom = 27
temp = 27
method = modified trap
Limiting rise time of source v1 to 2.52525e-08
Limiting fall time of source v1 to 2.52525e-08
Limiting rise time of source v2 to 2.52525e-08
Limiting fall time of source v2 to 2.52525e-08
Limiting rise time of source v6 to 2.52525e-08
Limiting fall time of source v6 to 2.52525e-08
Limiting rise time of source v7 to 2.52525e-08
Limiting fall time of source v7 to 2.52525e-08
WARNING: Less than two connections to node nc_01.  This node is used by v5.
Direct Newton iteration for .op point succeeded.
Total elapsed time: 3.517 seconds.

