LTspice 24.0.12 for Windows
Circuit: * Z:\home\frohro\Classes\Intro to Engineering\2026\Intro-to-CAD-2026\Frohne\Docs\TayloeDetectorAmplifier_Balanced_2026._OPA161x.asc
Start Time: Fri Feb 13 12:57:08 2026
solver = Normal
Maximum thread count: 8
tnom = 27
temp = 27
method = Gear
Direct Newton iteration failed to find .op point.  (Use ".option noopiter" to skip.)
Starting Gmin stepping
Gmin = 10
Gmin = 1.07374
vernier = 0.5
vernier = 0.25
vernier = 0.125
vernier = 0.0625
Gmin = 0.898294
vernier = 0.03125
vernier = 0.0416667
Gmin = 0.833269
vernier = 0.0555555
Gmin = 0.735938
vernier = 0.074074
vernier = 0.0987653
Gmin = 0.597937
vernier = 0.131687
vernier = 0.175583
Gmin = 0.430279
vernier = 0.23411
Gmin = 0.257578
vernier = 0.312147
vernier = 0.416196
Gmin = 0.110447
vernier = 0.554928
vernier = 0.277464
Gmin = 0.0442531
vernier = 0.138732
vernier = 0.0693659
vernier = 0.034683
vernier = 0.0173415
vernier = 0.00867074
Gmin = 0.0442531
vernier = 0.011561
Gmin = 0.0431494
vernier = 0.0154146
vernier = 0.0205529
Gmin = 0.041402
vernier = 0.0274038
vernier = 0.0365384
Gmin = 0.0387797
vernier = 0.0487178
Gmin = 0.0348796
vernier = 0.0649571
vernier = 0.0866095
Gmin = 0.0293378
vernier = 0.115479
vernier = 0.153972
Gmin = 0.0223333
vernier = 0.205296
Gmin = 0.0143963
vernier = 0.273728
vernier = 0.364971
Gmin = 0.00708385
vernier = 0.182486
vernier = 0.0912428
Gmin = 0.00543557
vernier = 0.121657
vernier = 0.162209
Gmin = 0.00394083
vernier = 0.216279
vernier = 0.10814
Gmin = 0.0028315
vernier = 0.144186
vernier = 0.072093
Gmin = 0.00222837
vernier = 0.096124
vernier = 0.048062
vernier = 0.024031
Gmin = 0.00205
vernier = 0.0120155
vernier = 0.00600775
vernier = 0.00300387
vernier = 0.00150194
Gmin = 0.00205382
vernier = 0.000750968
vernier = 0.000563226
vernier = 0.00042242
Gmin = 0.00205113
Gmin = 0
Gmin stepping failed

Starting source stepping with srcstepmethod=0
Source Step = 3.0303%
vernier = 0.25
Source Step = 0.520833%
Source Step = 0.994318%
Source Step = 1.4678%
Source Step = 1.94129%
Source Step = 2.41477%
vernier = 0.0234375
Source Step = 3.0303%
Source Step = 3.74053%
Source Step = 4.45076%
Source Step = 5.16098%
Source Step = 5.87121%
vernier = 0.0351562
Source Step = 6.759%
Source Step = 7.82434%
Source Step = 8.88968%
Source Step = 9.95502%
Source Step = 11.0204%
vernier = 0.0527344
Source Step = 12.2988%
Source Step = 13.8968%
Source Step = 15.4948%
Source Step = 15.5747%
Source Step = 15.6746%
Source Step = 15.7744%
Source Step = 15.8743%
Source Step = 15.9742%
vernier = 0.00494385
Source Step = 16.0841%
Source Step = 16.2339%
Source Step = 16.3837%
Source Step = 16.5335%
Source Step = 16.6833%
vernier = 0.00741577
Source Step = 16.8406%
Source Step = 17.0653%
Source Step = 17.2901%
Source Step = 17.5148%
Source Step = 17.7395%
Source Step = 17.9642%
vernier = 0.0111237
Source Step = 18.3013%
Source Step = 18.6384%
Source Step = 18.9755%
Source Step = 19.3125%
Source Step = 19.6496%
vernier = 0.0166855
Source Step = 20.1384%
Source Step = 20.644%
Source Step = 21.1496%
Source Step = 21.6553%
Source Step = 22.1609%
vernier = 0.0250282
Source Step = 22.8687%
Source Step = 23.6272%
Source Step = 24.3856%
Source Step = 25.144%
Source Step = 25.9025%
vernier = 0.0375423
Source Step = 26.9263%
Source Step = 28.064%
Source Step = 29.2016%
Source Step = 30.3393%
Source Step = 31.4769%
vernier = 0.0563135
Source Step = 32.9559%
Source Step = 34.6623%
Source Step = 36.3688%
Source Step = 38.0753%
Source Step = 39.7818%
vernier = 0.0844703
Source Step = 41.9148%
Source Step = 44.4745%
Source Step = 47.0343%
Source Step = 49.594%
Source Step = 52.1537%
vernier = 0.126705
Source Step = 55.2253%
Source Step = 57.817%
Source Step = 57.973%
Starting source stepping with srcstepmethod=1
Source Step = 3.0303%
Source Step = 18.1937%
Source stepping failed

Pseudo Transient succeeded in finding the operating point at 34.122 s.
Total elapsed time: 403.570 seconds.

